Mineral: Hematite
Rruff sample: R040024
Ideal chemistry: Fe^3+^_2_O_3_
Locality: near Covered Wells, Papago Indian Reservation, Arizona, USA
Source: University of Arizona Mineral Museum
Description: Reddish-black foliatated mass
Measured chemistry: (Fe_1.99_Al_0.01_)_Î£=2_O_3_
x	intensity
150.422	328.104
161.992	317.624
173.563	310.442
185.134	284.473
196.705	296.153
208.276	326.732
219.846	765.405
231.417	543.15
242.988	883.449
254.559	414.099
266.13	412.823
277.7	671.719
289.271	3032.37
300.842	2113.68
312.413	526.597
323.984	346.86
335.555	326.507
347.125	330.639
358.696	363.065
370.267	441.357
381.838	562.901
393.409	999.564
404.979	4021.39
416.55	3278.2
428.121	846.49
439.692	513.44
451.262	411.444
462.833	383.534
474.404	416.137
485.975	586.129
497.546	762.686
509.116	422.73
520.687	339.557
532.258	321.808
543.829	329.709
555.4	355.776
566.971	400.41
578.541	468.532
590.112	609.364
601.683	1338.4
613.254	2345.88
624.824	865.3
636.395	486.649
647.966	391.199
659.537	350.783
671.108	301.237
682.678	267.052
694.249	248.903
705.82	233.943
717.391	214.305
728.962	207.271
740.533	215.866
752.103	210.411
763.674	202.035
775.245	209.216
786.816	207.026
798.386	214.025
809.957	221.239
821.528	226.082
833.099	213.721
844.67	209.203
856.24	194.383
867.811	188.281
879.382	190.217
890.953	187.389
902.524	184.458
914.095	192.743
925.665	182.845
937.236	177.351
948.807	179.088
960.378	176.327
971.948	175.618
983.519	172.663
995.09	173.004
1006.66	179.769
1018.23	180.856
1029.8	199.453
1041.37	202.919
1052.94	216.7
1064.52	207.597
1076.09	212.775
1087.66	203.912
1099.23	211.221
1110.8	203.61
1122.37	197.271
1133.94	190.93
1145.51	198.628
1157.08	199.949
1168.65	201.116
1180.22	210.876
1191.79	212.37
1203.37	214.264
1214.93	216.114
1226.51	223.625
1238.08	237.888
1249.65	252.64
1261.22	282.233
1272.79	303.848
1284.36	337.687
1295.93	384.031
1307.5	458.351
1319.07	488.015
1330.64	437.149
1342.21	348.041
1353.79	288.889
1365.36	248.34
1376.93	231.266
1388.5	201.436
1400.07	199.805
1411.64	193.261
1423.21	192.299
1434.78	186.849
1446.35	194.266
1457.92	193.7
1469.49	200.327
1481.06	179.048
1492.63	185.624
1504.2	184.304
1515.78	189.748
1527.35	186.034
1538.92	189.219
1550.49	174.101
1562.06	173.282
1573.63	165.252
1585.2	149.138
1596.77	150.294
1608.34	140.334
1619.91	142.709
1631.48	141.068
1643.06	130.04
1654.63	134.934
1666.2	135.617
1677.77	133.838
1689.34	135.026
1700.91	129.945
1712.48	136.393
1724.05	134.476
1735.62	132.207
1747.19	136.28
1758.76	131.654
1770.33	131.779
1781.9	128.581
1793.47	134.891
1805.05	131.053
1816.62	131.353
1828.19	130.305
1839.76	124.119
1851.33	141.606
1862.9	131.626
1874.47	129.473
1886.04	132.237
1897.61	132.065
1909.18	129.709
1920.75	130.683
1932.33	128.007
1943.9	125.677
1955.47	130.286
1967.04	126.929
1978.61	124.097
1990.18	121.22
2001.75	125.203
2013.32	124.326
2024.89	114.901
2036.46	126.948
2048.03	118.435
2059.6	118.951
2071.18	120.985
2082.75	115.096
2094.32	119.271
2105.89	121.614
2117.46	114.188
2129.03	112.57
2140.6	112.762
2152.17	111.092
2163.74	116.2
2175.31	112.019
2186.88	111.277
2198.45	110.507
2210.02	110.185
2221.59	104.983
2233.17	108.306
2244.74	107.812
2256.31	107.536
2267.88	111.955
2279.45	107.472
2291.02	105.578
2302.59	106.901
2314.16	109.422
2325.73	105.333
2337.3	109.175
2348.87	104.592
2360.45	109.205
2372.02	106.123
2383.59	108.597
2395.16	104.618
2406.73	108.617
2418.3	102.981
2429.87	107.015
2441.44	104.66
2453.01	104.117
2464.58	109.135
2476.15	100.492
2487.72	98.8811
2499.29	108.635
2510.86	104.9
2522.44	104.511
2534.01	102.288
2545.58	107.681
2557.15	103.329
2568.72	100.69
2580.29	97.4359
2591.86	101.398
2603.43	101.326
2615	100.597
2626.57	97.8221
2638.14	100.483
2649.72	102.979
2661.29	101.819
2672.86	99.1861
2684.43	96.7176
2696	100.864
2707.57	96.4514
2719.14	96.4739
2730.71	93.964
2742.28	94.153
2753.85	92.2208
2765.42	93.0234
2776.99	88.3687
2788.56	88.9672
2800.14	86.1258
2811.71	87.0439
2823.28	83.6283
2834.85	78.9798
2846.42	77.5739
2857.99	81.8865
2869.56	78.0836
2881.13	87.089
2892.7	77.1207
2904.27	72.9291
2915.84	72.1516
2927.41	68.287
2938.99	66.6107
2950.56	69.9143
2962.13	65.246
2973.7	71.2945
2985.27	63.4463
2996.84	62.8929
3008.41	60.3507
3019.98	57.9199
3031.55	60.0373
3043.12	54.6965
3054.69	54.6664
3066.26	51.3753
3077.83	56.4434
3089.41	49.2289
3100.98	46.4364
3112.55	42.8737
3124.12	39.1938
3135.69	43.6535
3147.26	41.4483
3158.83	35.5752
3170.4	39.9643
3181.97	38.2821
3193.54	36.7065
3205.11	33.854
3216.68	30.3024
3228.26	32.903
3239.83	34.7551
3251.4	33.0983
3262.97	30.639
3274.54	28.1975
3286.11	34.1272
3297.68	30.9795
3309.25	22.0357
3320.82	28.5701
3332.39	29.0632
3343.96	21.9241
3355.53	23.4386
3367.1	26.1076
3378.68	23.2796
3390.25	22.1719
3401.82	19.8821
3413.39	23.0094
3424.96	22.9453
3436.53	20.4931
3448.1	17.7081
3459.67	18.1746
3471.24	21.1643
3482.81	17.8892
3494.38	19.3759
3505.95	16.9123
3517.53	13.282
3529.1	16.8373
3540.67	20.2491
3552.24	17.9929
3563.81	19.2683
3575.38	16.292
3586.95	18.2485
3598.52	13.2016
3610.09	15.4151
3621.66	12.5269
3633.23	10.0107
3644.8	14.3151
3656.38	17.3559
3667.95	10.8573
3679.52	17.6746
3691.09	11.9855
3702.66	6.97386
3714.23	8.76762
3725.8	5.54818
3737.37	8.84953
3748.94	6.50599
3760.51	5.87047
3772.08	8.90047
3783.65	9.54528
3795.22	2.76966
3806.8	3.8816
3818.37	3.52229
3829.94	4.92753
3841.51	6.35716
3853.08	-0.759761
3864.65	6.01978
3876.22	4.15658
3887.79	6.96831
3899.36	11.5855
3910.93	3.10152
3922.5	2.83084
3934.07	3.20445
3945.64	3.8064
3957.22	5.00604
3968.79	5.42621
3980.36	5.67649
3991.93	9.90777
4003.5	2.79655
4015.07	1.87089
4026.64	2.44308
4038.21	2.90607
4049.78	-0.233953
4061.35	8.58442
4072.92	5.5984
4084.49	-2.24938
4096.06	-5.45022
4107.64	-3.84036
4119.21	-3.67573
4130.78	0.456555
4142.35	-1.45168
4153.92	-2.75569
4165.49	-7.15927
4177.06	-1.28447
4188.63	3.44059
4200.2	-3.49263
4211.77	6.34182
4223.34	5.4077
4234.91	-3.66265
4246.48	-6.83802
4258.06	-1.24212
4269.63	0.125225
4281.2	-2.29148
4292.77	-7.0378
4304.34	3.59257
4315.91	-2.12699
4327.48	0.829994
4339.05	-2.59495
4350.62	-4.59914
