Mineral: Goethite
Rruff sample: R050142
Ideal chemistry: Fe^3+^O(OH)
Locality: Park County, Colorado, USA
Source: Dave Bunk Minerals
Description: Radiating spray of black to brown platy crystals
Measured chemistry: FeO(OH)
x	intensity
83.7886	251.116
95.3594	219.152
106.93	126.066
118.501	87.9085
130.072	84.1368
141.643	77.1323
153.213	82.6248
164.784	129.828
176.355	141.787
187.926	145.141
199.496	156.402
211.067	145.145
222.638	127.33
234.209	136.275
245.78	130.81
257.351	169.6
268.921	230.522
280.492	229.797
292.063	255.197
303.634	192.126
315.204	164.146
326.775	197.73
338.346	363.588
349.917	817.911
361.488	1023.2
373.058	1115.19
384.629	984.462
396.2	602.266
407.771	352.306
419.342	205.877
430.913	130.939
442.483	111.807
454.054	109.775
465.625	109.546
477.196	110.489
488.767	113.47
500.337	142.255
511.908	256.16
523.479	317.882
535.05	320.113
546.62	255.943
558.191	145.793
569.762	91.1595
581.333	70.7148
592.904	64.338
604.475	59.3311
616.045	57.468
627.616	56.8972
639.187	62.0964
650.758	70.6824
662.328	74.036
673.899	71.9373
685.47	60.1111
697.041	50.1205
708.612	42.0923
720.183	38.1077
731.753	37.7411
743.324	36.3956
754.895	35.9195
766.466	35.1022
778.037	34.9663
789.607	34.7269
801.178	34.4617
812.749	33.0272
824.32	32.9305
835.89	31.1774
847.461	30.98
859.032	30.2524
870.603	29.4632
882.174	27.5781
893.744	26.338
905.315	25.1662
916.886	24.4031
928.457	22.7699
940.028	22.669
951.598	23.5358
963.169	25.25
974.74	28.2038
986.311	29.1404
997.882	27.7888
1009.45	23.2378
1021.02	21.8938
1032.59	19.4118
1044.16	19.1839
1055.74	18.3387
1067.31	18.6001
1078.88	19.1562
1090.45	18.828
1102.02	19.2856
1113.59	17.6548
1125.16	17.0877
1136.73	16.5678
1148.3	16.7213
1159.87	16.441
1171.44	17.3705
1183.01	17.5551
1194.59	18.372
1206.16	18.3876
1217.73	18.2081
1229.3	18.0608
1240.87	18.7604
1252.44	19.0475
1264.01	19.2311
1275.58	19.1407
1287.15	19.7569
1298.72	19.185
1310.29	18.6772
1321.86	18.42
1333.43	17.125
1345.01	16.2767
1356.58	15.9639
1368.15	15.1555
1379.72	15.0928
1391.29	15.2657
1402.86	14.9626
1414.43	15.3774
1426	15.0409
1437.57	15.2716
1449.14	14.7156
1460.71	15.5331
1472.28	14.7245
1483.86	15.0905
1495.43	14.2087
1507	13.9331
1518.57	14.0402
1530.14	13.852
1541.71	13.8472
1553.28	14.6335
1564.85	14.184
1576.42	14.5227
1587.99	14.6976
1599.56	14.939
1611.13	15.0183
1622.7	14.5926
1634.28	14.8251
1645.85	14.4551
1657.42	14.6065
1668.99	14.4348
1680.56	14.248
1692.13	13.4084
1703.7	12.9994
1715.27	12.8406
1726.84	12.5109
1738.41	12.6542
1749.98	12.3511
1761.55	12.2586
1773.12	12.406
1784.7	12.7184
1796.27	11.8128
1807.84	11.5883
1819.41	11.9703
1830.98	11.9905
1842.55	11.5956
1854.12	11.057
1865.69	10.8828
1877.26	11.1777
1888.83	10.8054
1900.4	11.0463
1911.97	11.1687
1923.55	11.0235
1935.12	11.0591
1946.69	10.9199
1958.26	10.3917
1969.83	10.5526
1981.4	10.6079
1992.97	10.5373
2004.54	10.3369
2016.11	9.60687
2027.68	9.35005
2039.25	9.27796
2050.82	9.69975
2062.39	10.0412
2073.97	9.92778
2085.54	9.56866
2097.11	9.41648
2108.68	9.63177
2120.25	9.57103
2131.82	9.43207
2143.39	9.04751
2154.96	9.21916
2166.53	8.84869
2178.1	9.26774
2189.67	8.7558
2201.24	8.73966
2212.82	8.58497
2224.39	8.68037
2235.96	8.66397
2247.53	8.54592
2259.1	8.77183
2270.67	8.84682
2282.24	8.5301
2293.81	8.59981
2305.38	9.16938
2316.95	8.91708
2328.52	8.99138
2340.09	8.27356
2351.66	8.98591
2363.24	8.13645
2374.81	8.24692
2386.38	9.04955
2397.95	8.1355
2409.52	8.49888
2421.09	8.36063
2432.66	8.30484
2444.23	8.23592
2455.8	7.79296
2467.37	8.3036
2478.94	8.94092
2490.51	8.11717
2502.09	8.71968
2513.66	8.68777
2525.23	9.02092
2536.8	8.42023
2548.37	8.77206
2559.94	8.77901
2571.51	8.52163
2583.08	8.3445
2594.65	8.91754
2606.22	8.45535
2617.79	8.60819
2629.36	8.40801
2640.93	8.64795
2652.51	8.68388
2664.08	8.46208
2675.65	8.29096
2687.22	8.62407
2698.79	8.23256
2710.36	8.69222
2721.93	8.18952
2733.5	9.06013
2745.07	8.92338
2756.64	9.06809
2768.21	7.9921
2779.78	8.52917
2791.36	8.46348
2802.93	8.50551
2814.5	8.79687
2826.07	8.58688
2837.64	8.65941
2849.21	8.13722
2860.78	8.67385
2872.35	7.93143
2883.92	8.31395
2895.49	8.08936
2907.06	8.046
2918.63	8.16148
2930.2	7.75743
2941.78	7.89484
2953.35	8.14893
2964.92	7.79725
2976.49	7.95804
2988.06	8.06186
2999.63	8.96572
3011.2	7.93343
3022.77	7.9559
3034.34	8.7671
3045.91	8.83241
3057.48	8.0706
3069.05	8.57487
3080.62	8.25064
3092.2	8.9918
3103.77	8.08296
3115.34	8.60313
3126.91	8.20234
3138.48	7.52498
3150.05	7.82796
3161.62	7.68464
3173.19	6.64116
3184.76	7.35032
3196.33	6.99751
3207.9	6.49958
3219.47	6.4798
3231.05	5.62208
3242.62	6.9512
3254.19	6.04259
3265.76	6.06336
3277.33	6.34584
3288.9	7.19143
3300.47	6.29123
3312.04	5.97143
3323.61	6.68156
3335.18	6.07839
3346.75	6.31369
3358.32	5.8946
3369.89	6.2236
3381.47	5.82603
3393.04	5.13168
3404.61	6.22967
3416.18	5.51404
3427.75	5.44478
3439.32	5.18816
3450.89	6.67744
3462.46	6.40879
3474.03	4.89743
3485.6	5.82306
3497.17	5.62706
3508.74	5.24514
3520.32	4.84096
3531.89	5.56553
3543.46	4.5126
3555.03	5.53864
3566.6	4.72985
3578.17	4.38552
3589.74	4.9036
3601.31	5.31553
3612.88	5.03222
3624.45	4.65039
3636.02	4.45991
3647.59	4.20756
3659.16	4.25139
3670.74	4.56158
3682.31	4.5324
3693.88	4.77539
3705.45	4.99809
3717.02	4.7915
3728.59	4.25197
3740.16	4.00671
3751.73	3.90922
3763.3	3.95615
3774.87	3.42678
3786.44	4.5885
3798.01	4.36233
3809.59	3.05686
3821.16	3.32093
3832.73	3.44275
3844.3	3.35491
3855.87	2.73528
3867.44	3.16383
3879.01	3.79373
3890.58	2.81149
3902.15	3.58062
3913.72	3.59278
3925.29	2.64767
3936.86	2.84139
3948.43	2.25626
3960.01	2.42595
3971.58	2.41286
3983.15	2.2992
3994.72	2.04281
4006.29	1.70609
4017.86	1.2997
4029.43	1.99465
4041	1.0124
4052.57	1.74487
4064.14	1.93076
4075.71	0.967975
4087.28	1.46317
4098.85	0.902107
4110.43	1.74378
4122	1.49614
4133.57	1.049
4145.14	-0.113871
4156.71	0.731927
4168.28	1.07857
4179.85	0.560839
4191.42	0.330361
4202.99	0.841437
4214.56	0.398153
4226.13	0.174577
4237.7	0.249288
4249.28	0.671789
4260.85	0.908835
4272.42	0.841517
4283.99	0.559729
4295.56	0.371999
4307.13	0.47728
4318.7	0.757008
4330.27	0.547195
4341.84	0.954158
4353.41	0.936068
4364.98	0.931974
4376.56	0.731263
