Mineral: Magnetite
Rruff sample: R061111
Ideal chemistry: Fe^2+^Fe^3+^_2_O_4_
Locality: near Scotia Talc mine, Barberton Mountain, Transvaal, South Africa
Source: Michael Scott
Description: Black submetallic grains and octahedra associated with light green massive willemseite
Measured chemistry: (Fe^2+^_0.51_Ni_0.48_Co_0.01_)_Î£=1_Fe^3+^_2_O_4_; trace amounts of Al; Fe^2+^ and Fe^3+^ splitted by charge balance
x	intensity
237.303	1120.44
248.874	1110.98
260.445	1105.44
272.015	1082
283.586	1094.14
295.157	1076.84
306.728	1109.29
318.299	1125.48
329.869	1096.66
341.44	1032.58
353.011	1021.77
364.582	986.992
376.153	967.833
387.723	967.466
399.294	948.927
410.865	930.883
422.436	953.295
434.007	939.692
445.577	949.46
457.148	937.392
468.719	939.291
480.29	940.989
491.861	887.496
503.431	867.966
515.002	845.7
526.573	843.163
538.144	866.005
549.715	855.666
561.285	855.576
572.856	833.947
584.427	815.194
595.998	811.684
607.569	799.245
619.139	831.225
630.71	863.337
642.281	930.906
653.852	991.605
665.423	1140.09
676.993	1318.09
688.564	1310.72
700.135	1076.32
711.706	941.496
723.277	840.068
734.847	770.415
746.418	754.638
757.989	701.06
769.56	686.965
781.131	673.953
792.701	673.24
804.272	663.002
815.843	656.49
827.414	651.16
838.985	621.394
850.555	647.118
862.126	626.368
873.697	619.839
885.268	627.155
896.839	623.985
908.409	616.439
919.98	599.692
931.551	604.865
943.122	595.404
954.693	600.717
966.263	591.854
977.834	611.571
989.405	590.574
1000.98	591.518
1012.55	592.064
1024.12	578.515
1035.69	597.937
1047.26	570.878
1058.83	576.612
1070.4	581.523
1081.97	576.172
1093.54	575.533
1105.11	564.581
1116.68	558.385
1128.26	570.976
1139.83	551.137
1151.4	546.98
1162.97	550.475
1174.54	558.529
1186.11	559.894
1197.68	555.577
1209.25	571.22
1220.82	562.778
1232.39	570.901
1243.96	571.841
1255.53	576.226
1267.1	583.873
1278.67	577.759
1290.25	586.552
1301.82	582.11
1313.39	583.641
1324.96	578.55
1336.53	584.536
1348.1	561.729
1359.67	565.977
1371.24	562.056
1382.81	544.745
1394.38	526.646
1405.95	537.19
1417.53	521.202
1429.1	521.598
1440.67	515.383
1452.24	506.59
1463.81	511.194
1475.38	503.542
1486.95	482.239
1498.52	506.29
1510.09	479.74
1521.66	482.856
1533.23	477.02
1544.8	472.921
1556.37	473.938
1567.94	456.676
1579.52	449.338
1591.09	442.893
1602.66	457.081
1614.23	441.279
1625.8	428.505
1637.37	435.024
1648.94	428.696
1660.51	418.308
1672.08	419.624
1683.65	416.95
1695.22	393.67
1706.8	402.451
1718.37	391.035
1729.94	388.136
1741.51	386.557
1753.08	375.548
1764.65	382.365
1776.22	364.499
1787.79	360.578
1799.36	363.116
1810.93	364.578
1822.5	340.55
1834.07	344.706
1845.64	329.661
1857.21	316.692
1868.79	314.518
1880.36	311.792
1891.93	298.078
1903.5	299.106
1915.07	300.93
1926.64	295.163
1938.21	289.195
1949.78	287.903
1961.35	280.764
1972.92	263.163
1984.49	254.413
1996.07	253.238
2007.63	247.305
2019.21	239.484
2030.78	240.732
2042.35	228.648
2053.92	230.504
2065.49	221.407
2077.06	214.452
2088.63	199.835
2100.2	202.984
2111.77	200.744
2123.34	188.899
2134.91	187.733
2146.49	173.016
2158.06	166.362
2169.63	170.559
2181.2	167.503
2192.77	165.411
2204.34	162.338
2215.91	160.238
2227.48	149.187
2239.05	145.355
2250.62	145.232
2262.19	142.725
2273.76	137.201
2285.34	133.737
2296.91	130.802
2308.48	126.406
2320.05	116.572
2331.62	119.544
2343.19	112.551
2354.76	108.8
2366.33	112.117
2377.9	106.756
2389.47	93.7726
2401.04	99.5038
2412.61	97.1515
2424.18	97.0152
2435.76	87.0866
2447.33	89.7575
2458.9	79.3938
2470.47	82.128
2482.04	70.0552
2493.61	70.8151
2505.18	67.7294
2516.75	71.0819
2528.32	68.7223
2539.89	63.2515
2551.46	58.6603
2563.03	66.7674
2574.61	57.488
2586.18	54.1221
2597.75	54.3387
2609.32	52.0192
2620.89	42.1869
2632.46	50.3915
2644.03	43.0106
2655.6	40.9346
2667.17	38.9901
2678.74	40.0293
2690.31	42.2305
2701.88	43.5261
2713.45	32.3279
2725.03	30.7545
2736.6	29.4038
2748.17	30.4243
2759.74	29.2982
2771.31	22.5166
2782.88	22.751
2794.45	22.9833
2806.02	19.0467
2817.59	18.8989
2829.16	25.7002
2840.73	17.8987
2852.3	15.1737
2863.88	17.0535
2875.45	15.3806
2887.02	9.88266
2898.59	19.0888
2910.16	10.5769
2921.73	10.774
2933.3	10.8428
2944.87	18.1836
2956.44	14.7283
2968.01	18.1257
2979.58	2.16252
2991.15	13.9386
3002.72	5.20695
3014.3	6.09158
3025.87	8.38767
3037.44	5.11326
3049.01	7.22872
3060.58	4.90256
3072.15	8.42489
3083.72	3.0101
3095.29	5.85454
3106.86	1.20605
3118.43	3.25698
3130	1.93836
3141.57	4.64156
3153.14	0.457976
3164.72	7.20775
3176.29	3.43448
3187.86	5.17263
3199.43	3.5126
3211	2.86868
3222.57	-3.57473
3234.14	-4.89932
3245.71	3.82268
3257.28	2.68775
3268.85	4.7104
3280.42	2.32482
3291.99	6.81357
3303.57	-3.32563
3315.14	-5.83142
3326.71	2.84837
3338.28	-6.4883
3349.85	1.87948
3361.42	0.643779
3372.99	-0.883077
3384.56	1.13682
3396.13	2.2632
3407.7	-5.5323
3419.27	1.39232
3430.84	-2.29478
3442.41	-1.12986
3453.99	4.16204
3465.56	2.8606
3477.13	8.508
3488.7	5.0464
3500.27	-13.8805
3511.84	-3.41693
3523.41	-8.65316
3534.98	-4.91953
3546.55	-6.3712
3558.12	0.48463
3569.69	-3.8354
3581.26	-11.112
3592.84	-6.18279
3604.41	-3.34384
3615.98	-5.10319
3627.55	-3.40823
3639.12	-3.74059
3650.69	-6.59277
3662.26	-5.10445
3673.83	-6.19747
3685.4	2.44622
3696.97	1.49261
3708.54	-11.454
3720.11	-9.43187
3731.68	-7.29307
3743.26	-6.85846
3754.83	-4.71432
3766.4	-5.52078
3777.97	1.04793
3789.54	-2.25633
3801.11	-9.55608
3812.68	6.12768
3824.25	-11.8346
3835.82	1.48976
3847.39	-7.70948
3858.96	-6.93877
3870.53	1.90073
3882.11	-9.60949
3893.68	-8.72056
3905.25	-11.059
3916.82	-1.44711
3928.39	1.53174
3939.96	5.56327
3951.53	4.60428
3963.1	-3.69689
3974.67	-7.6002
3986.24	-7.58694
3997.81	-6.3757
4009.38	8.2873
4020.95	-6.18783
4032.53	-5.19715
4044.1	-6.84612
4055.67	-7.55355
4067.24	0.31465
4078.81	-1.32409
4090.38	-1.29229
4101.95	-3.53263
4113.52	-0.137914
4125.09	0.781564
4136.66	-0.478429
4148.23	-5.12699
4159.81	3.27855
4171.38	2.2719
4182.95	2.00627
4194.52	-1.37317
4206.09	-0.847209
4217.66	1.41904
4229.23	-6.69999
4240.8	2.27573
4252.37	-1.27852
4263.94	-2.96401
4275.51	-1.20502
4287.08	-4.62597
4298.65	-0.766946
